Version 4
SHEET 1 880 680
WIRE 480 -192 304 -192
WIRE 624 -192 560 -192
WIRE -144 -48 -144 -64
WIRE -80 -48 -144 -48
WIRE 32 -48 -80 -48
WIRE 304 -48 304 -192
WIRE 304 -48 112 -48
WIRE -80 -32 -80 -48
WIRE 368 -16 368 -48
WIRE 304 0 304 -48
WIRE 336 0 304 0
WIRE 624 16 624 -192
WIRE 624 16 400 16
WIRE 656 16 624 16
WIRE 336 32 288 32
WIRE 368 64 368 48
WIRE -80 96 -96 96
WIRE 32 96 -80 96
WIRE 288 96 288 32
WIRE 288 96 112 96
WIRE -96 128 -96 96
WIRE -80 160 -80 96
WIRE 288 176 288 96
WIRE 288 288 288 256
FLAG -80 48 0
FLAG -80 240 0
FLAG 288 288 0
FLAG 176 -3424 0
FLAG 656 16 U_out
FLAG -96 128 Uin1
FLAG -144 -64 Uin2
FLAG 576 144 Vpp
IOPIN 576 144 Out
FLAG 576 224 0
FLAG 736 144 Vnn
IOPIN 736 144 Out
FLAG 736 224 0
FLAG 368 -48 Vpp
IOPIN 368 -48 Out
FLAG 368 64 Vnn
IOPIN 368 64 Out
SYMBOL res 128 -64 R90
WINDOW 0 0 56 VBottom 2
WINDOW 3 32 56 VTop 2
SYMATTR InstName R2
SYMATTR Value 1k
SYMBOL res 128 80 R90
WINDOW 0 0 56 VBottom 2
WINDOW 3 32 56 VTop 2
SYMATTR InstName R1
SYMATTR Value 1k
SYMBOL res 272 160 R0
SYMATTR InstName R3
SYMATTR Value 1k
SYMBOL voltage -80 144 R0
WINDOW 123 0 0 Left 0
WINDOW 39 0 0 Left 0
SYMATTR InstName V1
SYMATTR Value 50mV
SYMBOL voltage -80 -48 R0
WINDOW 123 0 0 Left 0
WINDOW 39 0 0 Left 0
SYMATTR InstName V2
SYMATTR Value 150mv
SYMBOL OpAmps\\OP07 368 -48 R0
SYMATTR InstName U1
SYMBOL res 576 -208 R90
WINDOW 0 0 56 VBottom 2
WINDOW 3 32 56 VTop 2
SYMATTR InstName R4
SYMATTR Value 1k
SYMBOL voltage 576 128 R0
SYMATTR InstName V3
SYMATTR Value 15V
SYMBOL voltage 736 240 R180
WINDOW 0 24 96 Left 2
WINDOW 3 24 16 Left 2
SYMATTR InstName V4
SYMATTR Value 15v
TEXT 640 -80 Left 2 !.op
